@<TRIPOS>MOLECULE
*****
 26 27 0 0 0
SMALL
GASTEIGER
****
Structure written by MMmdl.
@<TRIPOS>ATOM
      1 C          -1.3466   -0.0475    0.0209 C.ar    1  UNL1       -0.0505
      2 C          -0.7118    1.1988    0.0615 C.ar    1  UNL1       -0.0188
      3 C           0.6759    1.2774   -0.0211 C.ar    1  UNL1        0.1309
      4 C           1.4462    0.1129   -0.0313 C.ar    1  UNL1        0.1007
      5 C           0.7897   -1.1328    0.0487 C.ar    1  UNL1       -0.0364
      6 C          -0.6195   -1.2490   -0.0016 C.ar    1  UNL1       -0.0141
      7 C          -1.2851   -2.5758   -0.1510 C.ar    1  UNL1        0.0175
      8 C          -0.6506   -3.7596    0.2776 C.ar    1  UNL1       -0.0486
      9 C          -1.1505   -5.0214   -0.0616 C.ar    1  UNL1       -0.0257
     10 C          -2.3713   -5.1242   -0.7094 C.ar    1  UNL1        0.1262
     11 C          -3.1024   -3.9926   -1.0170 C.ar    1  UNL1        0.0094
     12 C          -2.5322   -2.7401   -0.7957 C.ar    1  UNL1        0.1338
     13 F          -3.2072   -1.6841   -1.2763 F       1  UNL1       -0.2048
     14 F          -2.8418   -6.3306   -1.0488 F       1  UNL1       -0.2054
     15 C           2.9287    0.1849   -0.1882 C.2     1  UNL1        0.3404
     16 O           3.6244    1.1757   -0.3480 O.2     1  UNL1       -0.2450
     17 O           3.5131   -1.0299   -0.1819 O.3     1  UNL1       -0.4770
     18 O           1.2696    2.5036   -0.0958 O.3     1  UNL1       -0.5059
     19 H          -2.4346   -0.0543   -0.0056 H       1  UNL1        0.0625
     20 H          -1.3235    2.0933    0.1364 H       1  UNL1        0.0654
     21 H           1.4048   -2.0278    0.1054 H       1  UNL1        0.0633
     22 H           0.2637   -3.7207    0.8654 H       1  UNL1        0.0625
     23 H          -0.5887   -5.9198    0.1746 H       1  UNL1        0.0646
     24 H          -4.0880   -4.0759   -1.4595 H       1  UNL1        0.0675
     25 H           4.4599   -0.8136   -0.3278 H       1  UNL1        0.2954
     26 H           0.6039    3.2033   -0.1806 H       1  UNL1        0.2922
@<TRIPOS>BOND
     1     1     2   ar
     2     1     6   ar
     3     1    19    1
     4     2     3   ar
     5     2    20    1
     6     3     4   ar
     7     3    18    1
     8     4     5   ar
     9     4    15    1
    10     5     6   ar
    11     5    21    1
    12     6     7    1
    13     7     8   ar
    14     7    12   ar
    15     8     9   ar
    16     8    22    1
    17     9    10   ar
    18     9    23    1
    19    10    11   ar
    20    10    14    1
    21    11    12   ar
    22    11    24    1
    23    12    13    1
    24    15    16    2
    25    15    17    1
    26    17    25    1
    27    18    26    1
