@<TRIPOS>MOLECULE
5V3X_chainA_ligand
57   60    1
SMALL
USER_CHARGES


@<TRIPOS>ATOM
      1 O1          6.0010   27.2720    6.5550 O.2       1 I28         0.0000 
      2 C2          5.4310   26.2070    6.4820 C.2       1 I28         0.0000 
      3 C3          4.3030   25.9100    7.3740 C.2       1 I28         0.0000 
      4 C4          3.9760   24.6550    7.8730 C.2       1 I28         0.0000 
      5 C5          4.6330   23.3490    7.6620 C.ar      1 I28         0.0000 
      6 C6          5.9900   23.2080    7.3260 C.ar      1 I28         0.0000 
      7 C7          6.5380   21.9500    7.1390 C.ar      1 I28         0.0000 
      8 C8          5.7390   20.8300    7.3050 C.ar      1 I28         0.0000 
      9 C9          4.4040   20.9470    7.6590 C.ar      1 I28         0.0000 
     10 C10         3.8440   22.2010    7.8340 C.ar      1 I28         0.0000 
     11 O11         2.8880   24.7600    8.6340 O.3       1 I28         0.0000 
     12 C12         2.4290   26.0170    8.6920 C.ar      1 I28         0.0000 
     13 C13         1.3430   26.5270    9.3790 C.ar      1 I28         0.0000 
     14 C14         1.0520   27.8670    9.3090 C.ar      1 I28         0.0000 
     15 C15         1.8600   28.6880    8.5470 C.ar      1 I28         0.0000 
     16 O16         1.5630   30.0050    8.4650 O.3       1 I28         0.0000 
     17 C17         2.9620   28.2060    7.8580 C.ar      1 I28         0.0000 
     18 C18         3.7500   29.2340    7.0840 C.3       1 I28         0.0000 
     19 N19         4.8700   29.7490    7.9090 N.4       1 I28         0.0000 
     20 C20         5.8070   30.5200    7.0720 C.3       1 I28         0.0000 
     21 C21         6.9930   31.0770    7.8620 C.3       1 I28         0.0000 
     22 C22         6.4440   31.9810    8.9580 C.3       1 I28         0.0000 
     23 C23         7.6120   32.6120    9.7410 C.3       1 I28         0.0000 
     24 C24         5.6080   31.1290    9.9210 C.3       1 I28         0.0000 
     25 C25         4.4740   30.3900    9.1860 C.3       1 I28         0.0000 
     26 C26         3.2670   26.8390    7.9180 C.ar      1 I28         0.0000 
     27 O27         5.6650   25.4120    5.4100 O.3       1 I28         0.0000 
     28 C28         6.6000   25.8850    4.4020 C.3       1 I28         0.0000 
     29 C29         8.0270   25.4930    4.7800 C.3       1 I28         0.0000 
     30 H6          6.6119   24.0836    7.2122 H         1 I28         0.0000 
     31 H7          7.5782   21.8492    6.8666 H         1 I28         0.0000 
     32 H8          6.1543   19.8439    7.1583 H         1 I28         0.0000 
     33 H9          3.8025   20.0608    7.7978 H         1 I28         0.0000 
     34 H10         2.8023   22.2969    8.1023 H         1 I28         0.0000 
     35 H13         0.7224   25.8712    9.9716 H         1 I28         0.0000 
     36 H14         0.2024   28.2638    9.8449 H         1 I28         0.0000 
     37 HO16        1.1189   30.5234    9.3276 H         1 I28         0.0000 
     38 H181        4.1571   28.7733    6.1718 H         1 I28         0.0000 
     39 H182        3.0909   30.0707    6.8094 H         1 I28         0.0000 
     40 H201        6.2081   29.8722    6.2786 H         1 I28         0.0000 
     41 H202        5.2781   31.3710    6.6181 H         1 I28         0.0000 
     42 H211        7.5619   30.2458    8.3041 H         1 I28         0.0000 
     43 H212        7.6460   31.6504    7.1876 H         1 I28         0.0000 
     44 H22         5.8267   32.7693    8.5025 H         1 I28         0.0000 
     45 H231        7.2132   33.2643   10.5319 H         1 I28         0.0000 
     46 H232        8.2348   33.2055    9.0555 H         1 I28         0.0000 
     47 H233        8.2216   31.8165   10.1945 H         1 I28         0.0000 
     48 H241        6.2540   30.3809   10.4039 H         1 I28         0.0000 
     49 H242        5.1597   31.7767   10.6888 H         1 I28         0.0000 
     50 H251        3.6856   31.1328    8.9944 H         1 I28         0.0000 
     51 H252        4.0955   29.6240    9.8789 H         1 I28         0.0000 
     52 H281        6.3491   25.4359    3.4297 H         1 I28         0.0000 
     53 H282        6.5356   26.9806    4.3274 H         1 I28         0.0000 
     54 H291        8.7233   25.8565    4.0099 H         1 I28         0.0000 
     55 H292        8.0994   24.3978    4.8522 H         1 I28         0.0000 
     56 H293        8.2859   25.9424    5.7500 H         1 I28         0.0000 
     57 H57         5.4312   28.8796    8.2821 H         1 I28         0.0000 
@<TRIPOS>BOND
     1    1    2 2    
     2    2    3 1    
     3    2   27 1    
     4    3    4 2    
     5    3   26 1    
     6    4    5 1    
     7    4   11 1    
     8    5    6 ar   
     9    5   10 ar   
    10    6    7 ar   
    11    6   30 1    
    12    7    8 ar   
    13    7   31 1    
    14    8    9 ar   
    15    8   32 1    
    16    9   10 ar   
    17    9   33 1    
    18   10   34 1    
    19   11   12 1    
    20   12   13 ar   
    21   12   26 ar   
    22   13   14 ar   
    23   13   35 1    
    24   14   15 ar   
    25   14   36 1    
    26   15   16 1    
    27   15   17 ar   
    28   16   37 1    
    29   17   18 1    
    30   17   26 ar   
    31   18   19 1    
    32   18   38 1    
    33   18   39 1    
    34   19   20 1    
    35   19   25 1    
    36   19   57 1    
    37   20   21 1    
    38   20   40 1    
    39   20   41 1    
    40   21   22 1    
    41   21   42 1    
    42   21   43 1    
    43   22   23 1    
    44   22   24 1    
    45   22   44 1    
    46   23   45 1    
    47   23   46 1    
    48   23   47 1    
    49   24   25 1    
    50   24   48 1    
    51   24   49 1    
    52   25   50 1    
    53   25   51 1    
    54   27   28 1    
    55   28   29 1    
    56   28   52 1    
    57   28   53 1    
    58   29   54 1    
    59   29   55 1    
    60   29   56 1    
@<TRIPOS>SUBSTRUCTURE
     1 I28         1 GROUP             0 A     ****    0 ROOT    
